[TITLE]
Anytown network model

[JUNCTIONS]
 20                                   20.0000
 30                                   50.0000
 40                                   50.0000
 50                                   50.0000
 55                                   80.0000
 60                                   50.0000
 70                                   50.0000
 75                                   80.0000
 80                                   50.0000
 90                                   50.0000
 100                                  50.0000
 110                                  50.0000
 115                                  80.0000
 120                                 120.0000
 130                                 120.0000
 140                                  80.0000
 150                                 120.0000
 160                                 120.0000
 170                                 120.0000

[RESERVOIRS]
 10                                   10.0000                                
 65                                  215.0000                                
 165                                 215.0000                                

[TANKS]

[PIPES]
 2                               20                              70                                12000.0000      16.0000      70.0000       0.0000       
 4                               20                              30                                12000.0000      12.0000     120.0000       0.0000       
 6                               20                              110                               12000.0000      12.0000      70.0000       0.0000       
 8                               70                              30                                 9000.0000      12.0000      70.0000       0.0000       
 10                              70                              100                                 600.0000      12.0000      70.0000       0.0000       
 12                              70                              90                                  600.0000      10.0000      70.0000       0.0000       
 14                              70                              60                                  600.0000      12.0000      70.0000       0.0000       
 16                              90                              60                                  600.0000      10.0000      70.0000       0.0000       
 18                              60                              80                                  600.0000      12.0000      70.0000       0.0000       
 20                              90                              80                                  600.0000      10.0000      70.0000       0.0000       
 22                              90                              150                                 600.0000      10.0000      70.0000       0.0000       
 24                              90                              100                                 600.0000      10.0000      70.0000       0.0000       
 26                              100                             150                                 600.0000      12.0000      70.0000       0.0000       
 28                              150                             80                                  600.0000      10.0000      70.0000       0.0000       
 30                              60                              30                                  600.0000      10.0000     120.0000       0.0000       
 32                              30                              40                                  600.0000      10.0000     120.0000       0.0000       
 34                              30                              50                                  600.0000      10.0000     120.0000       0.0000       
 36                              40                              50                                  600.0000      10.0000     120.0000       0.0000       
 38                              50                              80                                  600.0000      10.0000     120.0000       0.0000       
 40                              80                              140                                 600.0000      10.0000     120.0000       0.0000       
 42                              150                             140                                 600.0000       8.0000     120.0000       0.0000       
 44                              150                             160                                 600.0000       8.0000     120.0000       0.0000       
 46                              100                             160                                 600.0000       8.0000     120.0000       0.0000       
 48                              100                             110                                 600.0000       8.0000      70.0000       0.0000       
 50                              110                             160                                 600.0000      10.0000     120.0000       0.0000       
 52                              110                             120                                 600.0000       8.0000     120.0000       0.0000       
 54                              120                             160                                 600.0000      12.0000     130.0000       0.0000       
 56                              120                             130                                 600.0000       8.0000     120.0000       0.0000       
 58                              130                             160                                 600.0000      10.0000     120.0000       0.0000       
 60                              130                             170                                 600.0000       8.0000     120.0000       0.0000       
 62                              160                             140                                 600.0000       8.0000     120.0000       0.0000       
 64                              170                             140                               12000.0000       8.0000     120.0000       0.0000       
 66                              50                              140                               12000.0000       8.0000     120.0000       0.0000       
 68                              140                             115                                6000.0000      12.0000     130.0000       0.0000       
 70                              140                             75                                 6000.0000      12.0000     130.0000       0.0000       
 72                              115                             75                                 6000.0000      12.0000     130.0000       0.0000       
 74                              50                              55                                 6000.0000      12.0000     130.0000       0.0000       
 76                              55                              75                                 6000.0000      12.0000     130.0000       0.0000       
 78                              60                              65                                  100.0000      12.0000     120.0000       0.0000       
 80                              165                             160                                 100.0000      12.0000     120.0000       0.0000       

[PUMPS]
 82                              10                              20                               HEAD 1

[VALVES]

[DEMANDS]
 20                                  500.000000  1                              
 30                                  200.000000  1                              
 40                                  200.000000  1                              
 50                                  200.000000  1                              
 55                                    0.000000  1                              
 60                                  500.000000  1                              
 70                                  500.000000  1                              
 75                                    0.000000  1                              
 80                                  500.000000  1                              
 90                                 1000.000000  1                              
 100                                 500.000000  1                              
 110                                 500.000000  1                              
 115                                   0.000000  1                              
 120                                 200.000000  1                              
 130                                 200.000000  1                              
 140                                 200.000000  1                              
 150                                 200.000000  1                              
 160                                 800.000000  1                              
 170                                 200.000000  1                              

[EMITTERS]

[STATUS]

[PATTERNS]
;Demand Pattern
 1                                     0.7000       0.6000       1.2000       1.3000       1.2000       1.1000
 1                                     1.0000       0.9000

[CURVES]
;PUMP: PUMP:  Pump Curve for Pump 9
 1                                     0.0000     300.0000
 1                                  2000.0000     292.0000
 1                                  4000.0000     270.0000
 1                                  6000.0000     230.0000
 1                                  8000.0000     181.0000
;EFFICIENCY: ID Flow efficiency
 E1                                    0.0000       0.0000
 E1                                 2000.0000      50.0000
 E1                                 4000.0000      65.0000
 E1                                 6000.0000      55.0000
 E1                                 8000.0000      40.0000

[CONTROLS]

[RULES]

[QUALITY]

[SOURCES]

[MIXING]

[REACTIONS]
 ORDER  BULK            1.00
 ORDER  WALL            1
 ORDER  TANK            1.00
 GLOBAL BULK            0.000000
 GLOBAL WALL            0.000000

[ENERGY]
 GLOBAL EFFIC        65.0000
 DEMAND CHARGE       0.0000
 PUMP 82                              EFFIC   E1

[TIMES]
 DURATION            24:00:00
 HYDRAULIC TIMESTEP  3:00:00
 QUALITY TIMESTEP    0:05:00
 REPORT TIMESTEP     3:00:00
 REPORT START        0:00:00
 PATTERN TIMESTEP    3:00:00
 PATTERN START       0:00:00
 RULE TIMESTEP       0:18:00
 START CLOCKTIME     0:00:00
 STATISTIC           NONE

[OPTIONS]
 UNITS               GPM
 PRESSURE            PSI
 HEADLOSS            H-W
 UNBALANCED          CONTINUE 10
 QUALITY             Chlorine mg/L
 DEMAND MULTIPLIER   1.0000
 EMITTER EXPONENT    0.5000
 VISCOSITY           1.000000
 DIFFUSIVITY         1.000000
 SPECIFIC GRAVITY    1.000000
 TRIALS              40
 ACCURACY            0.00100000
 TOLERANCE           0.01000000
 CHECKFREQ           2
 MAXCHECK            10
 DAMPLIMIT           0.00000000

[REPORT]
 PAGESIZE            0
 STATUS              YES
 SUMMARY             NO
 ENERGY              NO
 MESSAGES            YES
 NODES               NONE
 LINKS               NONE
 Elevation           NO
 Demand              PRECISION 2
 Head                PRECISION 2
 Pressure            PRECISION 2
 Quality             PRECISION 2
 Length              NO
 Diameter            NO
 Flow                PRECISION 2
 Velocity            PRECISION 2
 Headloss            PRECISION 2
 Quality             NO
 State               NO
 Setting             NO
 Reaction            NO

[COORDINATES]
 20                                 6391.600000    4257.810000
 30                                 6723.630000    6181.640000
 40                                 5327.150000    7500.000000
 50                                 3959.960000    7050.780000
 55                                 3081.050000    7431.640000
 60                                 5366.210000    6044.920000
 70                                 5473.630000    4931.640000
 75                                 2270.510000    7089.840000
 80                                 4340.820000    6230.470000
 90                                 4838.870000    5410.160000
 100                                4428.710000    4765.630000
 110                                4125.980000    3945.310000
 115                                1655.270000    6787.110000
 120                                3413.090000    3281.250000
 130                                2055.660000    3896.480000
 140                                2124.020000    6015.630000
 150                                3891.600000    5566.410000
 160                                2895.510000    4765.630000
 170                                 825.200000    5126.950000
 10                                 7241.210000    3750.000000
 65                                 5297.850000    6367.190000
 165                                2377.930000    4892.580000

[TAGS]

[VERTICES]
;Link            	X-Coord         	Y-Coord
 62              	2133.79         	6064.45         
 80              	2807.62         	4755.86         

[LABELS]
;X-Coord           Y-Coord          Label & Anchor Node

[BACKDROP]
 DIMENSIONS     	0.00            	0.00            	10000.00        	10000.00        
 UNITS          	None
 FILE           	
 OFFSET         	0.00            	0.00            

[END]
